gem5 Simulator System.  http://gem5.org
gem5 is copyrighted software; use the --copyright option for details.

gem5 compiled Feb 10 2017 17:57:01
gem5 started Feb 10 2017 18:03:17
gem5 executing on valor.localdomain, pid 38774
command line: gem5.opt --outdir=/home/shumin/workspace/LG_Result/170124/m5out --stats-file=blackscholes_o3 /home/shumin/LG_Project/gem5/configs/example/se.py --cpu-type=arm_detailed --num-cpus=1 --caches --l2cache --maxinst=500000000 --cmd=/home/shumin/benchmark/PARSEC-2.1/pkgs/apps/blackscholes/inst/gcc-arm.gcc-arm/bin/blackscholes '--options=1 /home/shumin/benchmark/PARSEC-2.1/pkgs/apps/blackscholes/inputs/in_10M.txt prices.txt'

Global frequency set at 1000000000000 ticks per second
0: system.remote_gdb.listener: listening for remote gdb #0 on port 7008
warn: ClockedObject: More than one power state change request encountered within the same simulation tick
**** REAL SIMULATION ****
info: Entering event queue @ 0.  Starting simulation...
warn: ignoring syscall set_tid_address(671848, ...)
warn: ignoring syscall set_robust_list(671856, ...)
warn: ignoring syscall rt_sigaction(32, ...)
      (further warnings will be suppressed)
warn: ignoring syscall rt_sigprocmask(1, ...)
      (further warnings will be suppressed)
warn: readlink() called on '/proc/self/exe' may yield unexpected results in various settings.
      Returning '/home/shumin/benchmark/PARSEC-2.1/pkgs/apps/blackscholes/inst/gcc-arm.gcc-arm/bin/blackscholes'
info: Increasing stack size by one page.
PARSEC Benchmark Suite Version 2.1
Exiting @ tick 176815273500 because a thread reached the max instruction count
