gem5 Simulator System.  http://gem5.org
gem5 is copyrighted software; use the --copyright option for details.

gem5 compiled Feb 10 2017 17:57:01
gem5 started Feb 10 2017 18:03:17
gem5 executing on valor.localdomain, pid 38709
command line: gem5.opt --outdir=/home/shumin/workspace/LG_Result/170124/m5out --stats-file=bzip2_o3 /home/shumin/LG_Project/gem5/configs/example/se.py --cpu-type=arm_detailed --num-cpus=1 --caches --l2cache --maxinst=500000000 --cmd=/home/shumin/benchmark/SPEC2006/401.bzip2/exe/bzip2_base.arm '--options=/home/shumin/benchmark/SPEC2006/401.bzip2/data/ref/input/input.source;280'

Global frequency set at 1000000000000 ticks per second
0: system.remote_gdb.listener: listening for remote gdb #0 on port 7000
warn: ClockedObject: More than one power state change request encountered within the same simulation tick
**** REAL SIMULATION ****
info: Entering event queue @ 0.  Starting simulation...
warn: CP14 unimplemented crn[14], opc1[7], crm[15], opc2[7]
spec_init
Loading Input Data
Duplicating 15345664 bytes
Input data 67108864 bytes in length
Compressing Input Data, level 5
info: Increasing stack size by one page.
info: Increasing stack size by one page.
info: Increasing stack size by one page.
Exiting @ tick 206676569500 because a thread reached the max instruction count
