gem5 Simulator System.  http://gem5.org
gem5 is copyrighted software; use the --copyright option for details.

gem5 compiled Feb 10 2017 17:57:01
gem5 started Feb 10 2017 18:03:17
gem5 executing on valor.localdomain, pid 38781
command line: gem5.opt --outdir=/home/shumin/workspace/LG_Result/170124/m5out --stats-file=fluidanimate_o3 /home/shumin/LG_Project/gem5/configs/example/se.py --cpu-type=arm_detailed --num-cpus=1 --caches --l2cache --maxinst=500000000 --cmd=/home/shumin/benchmark/PARSEC-2.1/pkgs/apps/fluidanimate/obj/gcc-arm.gcc-arm/fluidanimate '--options=1 5 /home/shumin/benchmark/PARSEC-2.1/pkgs/apps/fluidanimate/inputs/in_500K.fluid out.fluid'

Global frequency set at 1000000000000 ticks per second
0: system.remote_gdb.listener: listening for remote gdb #0 on port 7012
warn: ClockedObject: More than one power state change request encountered within the same simulation tick
**** REAL SIMULATION ****
info: Entering event queue @ 0.  Starting simulation...
warn: ignoring syscall set_tid_address(1208424, ...)
warn: ignoring syscall set_robust_list(1208432, ...)
warn: ignoring syscall rt_sigaction(32, ...)
      (further warnings will be suppressed)
warn: ignoring syscall rt_sigprocmask(1, ...)
      (further warnings will be suppressed)
warn: readlink() called on '/proc/self/exe' may yield unexpected results in various settings.
      Returning '/home/shumin/benchmark/PARSEC-2.1/pkgs/apps/fluidanimate/obj/gcc-arm.gcc-arm/fluidanimate'
info: Increasing stack size by one page.
warn: ignoring syscall futex(1166900, ...)
      (further warnings will be suppressed)
PARSEC Benchmark Suite Version 2.1
Loading file "/home/shumin/benchmark/PARSEC-2.1/pkgs/apps/fluidanimate/inputs/in_500K.fluid"...
Number of cells: 229900
Exiting @ tick 158778784000 because a thread reached the max instruction count
