gem5 Simulator System.  http://gem5.org
gem5 is copyrighted software; use the --copyright option for details.

gem5 compiled Feb 10 2017 17:57:01
gem5 started Feb 10 2017 18:03:17
gem5 executing on valor.localdomain, pid 38748
command line: gem5.opt --outdir=/home/shumin/workspace/LG_Result/170124/m5out --stats-file=libquantum_o3 /home/shumin/LG_Project/gem5/configs/example/se.py --cpu-type=arm_detailed --num-cpus=1 --caches --l2cache --maxinst=500000000 --cmd=/home/shumin/benchmark/SPEC2006/462.libquantum/exe/libquantum_base.arm --options=1397,8

Global frequency set at 1000000000000 ticks per second
0: system.remote_gdb.listener: listening for remote gdb #0 on port 7004
warn: ClockedObject: More than one power state change request encountered within the same simulation tick
**** REAL SIMULATION ****
info: Entering event queue @ 0.  Starting simulation...
warn: CP14 unimplemented crn[14], opc1[7], crm[15], opc2[7]
N = 1397, 56 qubits required
Random seed: 1118
Exiting @ tick 246808974500 because a thread reached the max instruction count
